Circuit: * C:\Users\schoo\302OffOnedrive\301 Project\12_Cypress_LineFollowingRobot\Hardware Tasks\Draft1.asc

Limiting rise time of source v2 to 0.0002
Limiting fall time of source v2 to 0.0002
Direct Newton iteration for .op point succeeded.

Date: Thu Aug 24 20:36:16 2023
Total elapsed time: 0.213 seconds.

tnom = 27
temp = 27
method = modified trap
totiter = 2489
traniter = 2486
tranpoints = 1244
accept = 1194
rejected = 50
matrix size = 7
fillins = 0
solver = Normal
Matrix Compiler1: 160 bytes object code size  0.1/0.1/[0.1]
Matrix Compiler2: 413 bytes object code size  0.1/0.2/[0.1]

