Circuit: * C:\Users\schoo\302OffOnedrive\301 Project\12_Cypress_LineFollowingRobot\Hardware Tasks\Task1Schematic.asc

WARNING: Less than two connections to node VFG2.  This node is used by V3.
Direct Newton iteration for .op point succeeded.

Date: Wed Aug 02 13:02:47 2023
Total elapsed time: 0.711 seconds.

tnom = 27
temp = 27
method = modified trap
totiter = 23679
traniter = 23676
tranpoints = 11839
accept = 8194
rejected = 3645
matrix size = 6
fillins = 0
solver = Normal
Matrix Compiler1: 146 bytes object code size  0.1/0.1/[0.1]
Matrix Compiler2: 320 bytes object code size  0.1/0.1/[0.1]

